<?xml version="1.0" encoding="UTF-8"?>
<!DOCTYPE network SYSTEM "http://www.matsim.org/files/dtd/network_v1.dtd">
<network name="new_sioux">
    <nodes>
        <node id="237885175_0_rL0" x="682934.324901" y="4821694.110265" />
        <node id="80654282" x="683117.627267" y="4826436.566251" />
        <node id="2447849769" x="680204.628155" y="4826195.873431" />
        <node id="2447834867" x="679181.276750" y="4826818.499111" />
        <node id="2449961975" x="680303.722347" y="4830085.861839" />
        <node id="481801172" x="681403.309927" y="4818826.392511" />
        <node id="80723120" x="682476.151879" y="4823700.288645" />
        <node id="9904632_0L0" x="682982.387303" y="4821859.573096" />
        <node id="80735480" x="678365.311581" y="4827050.237694" />
        <node id="2449984611" x="679189.311762" y="4829845.022748" />
        <node id="1351593882" x="682370.615278" y="4818882.060811" />
        <node id="57932761_0L0" x="682505.864030" y="4830950.981508" />
        <node id="80673149" x="679927.996792" y="4830824.388243" />
        <node id="80692343" x="681665.840189" y="4823901.208765" />
        <node id="80661772" x="683730.090976" y="4822120.510045" />
        <node id="2456364289" x="683404.492342" y="4823674.273248" />
        <node id="237169357_0_rL0" x="681728.265474" y="4821661.046202" />
        <node id="80693046" x="682570.458614" y="4820470.794482" />
        <node id="80670702" x="681819.389491" y="4824800.959338" />
        <node id="2458750803" x="686349.252298" y="4824104.906886" />
        <node id="1350850318" x="681975.074814" y="4825299.885130" />
        <node id="80673657" x="679480.641398" y="4826539.863020" />
        <node id="80689400" x="683986.469701" y="4824073.449340" />
        <node id="80641442" x="685921.145742" y="4822143.737911" />
        <node id="80667959" x="685709.669248" y="4828939.344016" />
        <node id="80681366" x="684757.613733" y="4828597.611628" />
        <node id="119405104_5_rL0" x="681365.290258" y="4820435.982872" />
        <node id="80718767" x="687219.377988" y="4824136.614231" />
        <node id="80653373" x="683642.431463" y="4829698.514371" />
        <node id="2447834829" x="679487.213332" y="4826881.415237" />
        <node id="236829151_0L0" x="678438.259790" y="4824492.642714" />
        <node id="9907812_1_rL0" x="685681.154320" y="4824293.613924" />
        <node id="80707294" x="682923.437074" y="4823939.017224" />
        <node id="80662136" x="682298.002344" y="4823698.495590" />
        <node id="80718732" x="684656.560509" y="4824061.444892" />
        <node id="2986714972" x="679951.853266" y="4828466.481367" />
        <node id="2444095274" x="678366.091481" y="4827030.630709" />
        <node id="216867866_2_rL2" x="684850.194457" y="4818916.679967" />
        <node id="1684134705" x="683328.065852" y="4827508.200243" />
        <node id="1341678763" x="683607.395316" y="4825120.933787" />
        <node id="524421052" x="686277.141504" y="4826594.697112" />
        <node id="1350850740" x="683216.718123" y="4825960.540610" />
        <node id="80803447" x="679435.146010" y="4820748.874528" />
        <node id="2453643042" x="683667.063962" y="4830273.456689" />
        <node id="2458750856" x="686208.409007" y="4824101.066282" />
        <node id="80678459" x="680496.360055" y="4824496.477595" />
        <node id="2448823685" x="679348.943704" y="4825271.568072" />
        <node id="80641874" x="686433.614903" y="4826083.252908" />
        <node id="1331643552" x="679388.517930" y="4826840.820023" />
        <node id="80661897" x="683902.704404" y="4826671.318882" />
        <node id="80643841" x="686362.694275" y="4830277.752257" />
        <node id="83468744_6_rL0" x="684954.983949" y="4821744.894962" />
        <node id="238143100_0_rL0" x="686638.711762" y="4826534.149799" />
        <node id="237885652_2L0" x="681298.929001" y="4822458.033391" />
        <node id="2449984618" x="679700.867803" y="4829839.135185" />
        <node id="80678355" x="683376.593570" y="4824533.539594" />
        <node id="80661764" x="684133.108238" y="4822129.131063" />
        <node id="80718201" x="683984.126677" y="4827272.947472" />
        <node id="524420798" x="686267.031151" y="4828615.209064" />
        <node id="80245698" x="682083.795691" y="4818767.569032" />
        <node id="236661782_0L0" x="679298.026055" y="4821526.482317" />
        <node id="2447702527" x="682040.772684" y="4825855.626343" />
        <node id="80655534" x="681600.397516" y="4824994.392154" />
        <node id="80678188" x="678876.902583" y="4822781.335865" />
        <node id="237173971_1_rL0" x="686670.073486" y="4820836.467714" />
        <node id="80692817" x="678482.534491" y="4822849.267155" />
        <node id="524414420" x="686321.127191" y="4823806.469020" />
        <node id="616070037" x="679867.596660" y="4831262.654050" />
        <node id="2447720449" x="683299.277378" y="4826966.372539" />
        <node id="80802988" x="678615.398792" y="4824195.435962" />
        <node id="80738162" x="687259.440567" y="4824640.029933" />
        <node id="2449111537" x="679536.182393" y="4828463.063327" />
        <node id="2446667081" x="679537.366243" y="4820385.068779" />
        <node id="80681391" x="685994.833512" y="4828608.686711" />
        <node id="236805320_2L1" x="680570.514715" y="4828036.036135" />
        <node id="237170582_0_rL0" x="682624.585911" y="4820118.563039" />
        <node id="2451195202" x="683787.171407" y="4820244.657114" />
        <node id="80673106" x="679997.180648" y="4827520.784824" />
        <node id="80693050" x="682169.550243" y="4820459.406855" />
        <node id="80641324" x="686147.917915" y="4828611.990110" />
        <node id="4015808599" x="683378.219499" y="4828028.361392" />
        <node id="80681376" x="685565.461876" y="4828617.919581" />
        <node id="216867866_2_rL1" x="684376.578906" y="4818902.648638" />
        <node id="2449984662" x="680006.803212" y="4829942.195281" />
        <node id="2451210928" x="685615.417838" y="4821955.958521" />
        <node id="80644096" x="679997.874739" y="4828370.921264" />
        <node id="80697615" x="682410.504186" y="4826219.509817" />
        <node id="80692382" x="681770.656272" y="4820448.331037" />
        <node id="237170089_3_rb0" x="683369.316179" y="4820603.053975" />
        <node id="2986769590" x="686274.083699" y="4824110.023644" />
        <node id="2449111394" x="679007.531596" y="4828443.894698" />
        <node id="80670939" x="680145.320940" y="4820401.922280" />
        <node id="1751873252" x="679276.535843" y="4824689.091015" />
        <node id="80741763" x="682797.929985" y="4824225.345400" />
        <node id="237059996_0L1" x="678629.646094" y="4831100.714779" />
        <node id="236376656_6_rL0" x="686069.938536" y="4830242.719273" />
        <node id="80710911" x="682316.542791" y="4826613.969031" />
        <node id="118985879_1L0" x="679882.675707" y="4829697.724307" />
        <node id="80646106" x="686349.211334" y="4830810.210569" />
        <node id="2447946681" x="679367.509479" y="4823604.079651" />
        <node id="2455026006" x="683150.352054" y="4827858.037145" />
        <node id="2447909761" x="682410.892772" y="4823696.648456" />
        <node id="2440975614" x="679322.603582" y="4819573.047718" />
        <node id="2446597481" x="679279.451916" y="4821885.970021" />
        <node id="119407985_3L0" x="683389.260806" y="4827752.512780" />
        <node id="2456582579" x="686470.025354" y="4826103.059994" />
        <node id="80686959" x="679949.092747" y="4829254.063177" />
        <node id="236669174_0_rL0" x="680168.260279" y="4819941.017714" />
        <node id="236821664_2_rL0" x="681269.981992" y="4823665.055644" />
        <node id="80653012" x="680820.581339" y="4825261.726580" />
        <node id="2449018684" x="683715.622153" y="4822583.361138" />
        <node id="236954278_0_rL0" x="680467.041018" y="4828475.798082" />
        <node id="80653073" x="678413.500587" y="4825190.455623" />
        <node id="2447909805" x="682184.654896" y="4822482.193921" />
        <node id="2447702563" x="681959.232063" y="4825787.628012" />
        <node id="2449142302" x="680197.216616" y="4828469.214006" />
        <node id="1892271833" x="679789.548843" y="4824017.958276" />
        <node id="9904517_0_rL0" x="680057.695665" y="4824298.106012" />
        <node id="80641795" x="679657.624050" y="4826777.767447" />
        <node id="80780760" x="679379.160677" y="4826949.001087" />
        <node id="80641535" x="686373.335547" y="4830843.637609" />
        <node id="216867866_2L2" x="683902.963355" y="4818888.617310" />
        <node id="2448820517" x="679453.665832" y="4825267.520708" />
        <node id="2447767882" x="680216.888451" y="4826188.333720" />
        <node id="80686994" x="679907.514896" y="4827937.124610" />
        <node id="399702817" x="679856.687947" y="4830054.544320" />
        <node id="2461224831" x="687450.291284" y="4818960.889079" />
        <node id="80719429" x="681709.749229" y="4825899.515716" />
        <node id="2447849706" x="680035.157353" y="4826535.880795" />
        <node id="2448820485" x="679708.809412" y="4825235.013525" />
        <node id="80730062" x="683614.437870" y="4824686.131446" />
        <node id="236799143_5L0" x="681637.079892" y="4825889.363603" />
        <node id="524415714" x="681947.124668" y="4819217.426740" />
        <node id="80770174" x="680869.072216" y="4823652.088855" />
        <node id="2458750784" x="686270.942091" y="4824116.605439" />
        <node id="236376678_0_rL0" x="678665.406574" y="4828435.723446" />
        <node id="2449935698" x="679947.379552" y="4828458.881315" />
        <node id="80640987" x="679921.901982" y="4830666.088274" />
        <node id="80693063" x="680959.924243" y="4820423.634707" />
        <node id="80673665" x="679382.523356" y="4825972.032223" />
        <node id="80667061" x="683532.372313" y="4823451.217266" />
        <node id="80655515" x="682319.513301" y="4826915.032809" />
        <node id="9907876_0_rL2" x="682779.174432" y="4830562.878061" />
        <node id="80730158" x="682996.245575" y="4828411.642922" />
        <node id="1860609894" x="680715.724917" y="4829290.613110" />
        <node id="80703842" x="685580.555693" y="4822969.644508" />
        <node id="237064634_0_rL0" x="685888.402408" y="4831843.548906" />
        <node id="237886203_1L0" x="683741.554501" y="4821715.028676" />
        <node id="236796987_3L0" x="681371.993920" y="4825280.843367" />
        <node id="481801171" x="681270.351626" y="4818822.096401" />
        <node id="237049290_1L0" x="679379.038914" y="4830049.379199" />
        <node id="237064634_0L2" x="685888.402408" y="4831843.548906" />
        <node id="237173994_0L0" x="685447.298632" y="4821158.084265" />
        <node id="34519631_0L0" x="681669.067151" y="4831142.842645" />
        <node id="9902355_0L0" x="680194.782578" y="4831053.425099" />
        <node id="80662751" x="684787.842657" y="4827817.793003" />
        <node id="80692406" x="682000.468640" y="4819047.130430" />
        <node id="2440985564" x="679472.022770" y="4818750.240800" />
        <node id="2447768017" x="679818.941449" y="4826647.872389" />
        <node id="80749377" x="684430.487054" y="4823883.164440" />
        <node id="238046404_0L0" x="686852.272069" y="4819376.088748" />
        <node id="2444156946" x="684616.060894" y="4822933.018699" />
        <node id="9902236_0L1" x="686692.606293" y="4831145.690784" />
        <node id="80766104" x="682437.992469" y="4825965.866478" />
        <node id="237784202_0L1" x="686239.044028" y="4827202.369421" />
        <node id="80653274" x="680857.237277" y="4824067.481747" />
        <node id="80667947" x="685384.441810" y="4828969.578967" />
        <node id="80667070" x="682942.067377" y="4823436.145191" />
        <node id="80698035" x="679146.536017" y="4827917.064954" />
        <node id="237059099_0L0" x="678628.823219" y="4831072.617641" />
        <node id="495863836" x="679876.582652" y="4826802.829032" />
        <node id="236829141_0L0" x="679276.905673" y="4824422.764394" />
        <node id="2449935703" x="679938.607631" y="4828461.224455" />
        <node id="1751873221" x="679294.226510" y="4825217.013336" />
        <node id="80807263" x="679788.090573" y="4824085.705327" />
        <node id="9905663_0L0" x="686674.429733" y="4832274.378535" />
        <node id="2447702508" x="681877.148796" y="4825853.812866" />
        <node id="9902236_0_rL1" x="687087.375047" y="4831072.565226" />
        <node id="236193215_5_rL0" x="680878.128780" y="4823249.753152" />
        <node id="9904430_0L1" x="684581.712045" y="4820645.386061" />
        <node id="80654262" x="682860.019866" y="4825955.435107" />
        <node id="80644302" x="682264.028324" y="4819323.604133" />
        <node id="80710602" x="683348.053209" y="4821299.120434" />
        <node id="237172238_0L0" x="684188.916052" y="4820327.439509" />
        <node id="1918677895" x="683212.886876" y="4820004.445899" />
        <node id="2447946661" x="679333.531946" y="4823623.066724" />
        <node id="80662383" x="682025.846802" y="4824831.773117" />
        <node id="80641222" x="686247.538301" y="4827981.224071" />
        <node id="83468768_0_rL0" x="683322.387210" y="4829903.595680" />
        <node id="80641212" x="686470.827443" y="4828619.184087" />
        <node id="2446664157" x="678895.158700" y="4821828.458861" />
        <node id="57932786_0L0" x="681682.560965" y="4831113.381901" />
        <node id="9904430_0_rL0" x="684581.712045" y="4820645.386061" />
        <node id="9904007_0L0" x="679832.903124" y="4827590.784197" />
        <node id="237049298_0L0" x="679982.039309" y="4830370.519923" />
        <node id="2447874016" x="681977.295281" y="4825226.033733" />
        <node id="2446667062" x="679711.048853" y="4820193.643790" />
        <node id="2450014090" x="679097.734391" y="4830024.516970" />
        <node id="971869016" x="683921.776696" y="4823978.124716" />
        <node id="80703459" x="685227.371884" y="4829809.871367" />
        <node id="80677694" x="684176.744525" y="4824555.442523" />
        <node id="1350850722" x="681956.189199" y="4825874.516750" />
        <node id="237049585_1_rL1" x="678337.291561" y="4827968.447361" />
        <node id="80719075" x="685806.908002" y="4829832.892214" />
        <node id="80653816" x="682195.942329" y="4822884.711370" />
        <node id="80662963" x="684897.053333" y="4823550.281097" />
        <node id="1751873987" x="678256.426101" y="4830759.125820" />
        <node id="83468744_6L0" x="684954.983949" y="4821744.894962" />
        <node id="80707304" x="682469.056360" y="4823924.220609" />
        <node id="9905636_7_rL0" x="680811.885925" y="4825560.036827" />
        <node id="80785795" x="683105.828399" y="4830172.693129" />
        <node id="80692368" x="681713.442837" y="4822067.244539" />
        <node id="2446664458" x="679854.944866" y="4821543.959788" />
        <node id="80678874" x="683130.788003" y="4825974.755900" />
        <node id="80662986" x="684933.120516" y="4822453.691547" />
        <node id="9904430_0L0" x="684180.685814" y="4820575.748843" />
        <node id="524421847" x="686397.951535" y="4830800.440093" />
        <node id="80641433" x="679682.156203" y="4829919.757564" />
        <node id="80728449" x="683785.390842" y="4820305.349707" />
        <node id="80642646" x="680022.377420" y="4826851.330524" />
        <node id="80710643" x="683429.347804" y="4818874.585981" />
        <node id="236805323_0L0" x="679542.373393" y="4826440.264612" />
        <node id="2450014120" x="679115.784193" y="4829877.411847" />
        <node id="80662150" x="682531.907754" y="4821704.301153" />
        <node id="80653021" x="680376.330204" y="4825249.262134" />
        <node id="80717511" x="686410.775795" y="4829356.841237" />
        <node id="1860609939" x="679327.524543" y="4824046.903821" />
        <node id="42145877_1_rL0" x="686751.889250" y="4824625.981023" />
        <node id="80678363" x="682790.593212" y="4824516.203292" />
        <node id="2451178784" x="683189.628961" y="4820082.858722" />
        <node id="524419525" x="686292.515513" y="4826038.886991" />
        <node id="80654705" x="683400.798485" y="4823808.637160" />
        <node id="80661717" x="686202.987585" y="4822173.850451" />
        <node id="80780801" x="682145.488739" y="4821265.475214" />
        <node id="9905727_2L0" x="687345.209389" y="4822616.707594" />
        <node id="86865859_3_rL0" x="684521.978513" y="4824564.364295" />
        <node id="123170973_0L0" x="685126.643336" y="4823278.611985" />
        <node id="42145610_0L0" x="686254.003381" y="4823085.751656" />
        <node id="237784199_5L0" x="685636.464963" y="4825841.366336" />
        <node id="9907812_1L0" x="685681.154320" y="4824293.613924" />
        <node id="2449984627" x="679939.919801" y="4830071.138322" />
        <node id="80655513" x="682457.596348" y="4826817.755140" />
        <node id="2448823671" x="679330.810517" y="4825272.617340" />
        <node id="2447946649" x="679314.655765" y="4823602.423665" />
        <node id="524414677" x="686126.106862" y="4822580.936113" />
        <node id="80728435" x="683753.018026" y="4821309.547307" />
        <node id="80691885" x="685626.814283" y="4823238.590038" />
        <node id="236193238_0_rL0" x="682184.259454" y="4820068.988358" />
        <node id="80640144" x="679674.713752" y="4830047.329246" />
        <node id="237049585_0L1" x="678303.598767" y="4829231.040033" />
        <node id="9908557_1_rL0" x="686302.246635" y="4819759.188620" />
        <node id="1010857461" x="682329.225148" y="4830151.508785" />
        <node id="2053452242" x="678678.370145" y="4829902.247034" />
        <node id="9902653_0L0" x="679420.091237" y="4826516.770848" />
        <node id="2447702543" x="681127.223363" y="4825895.904774" />
        <node id="80663071" x="685323.810008" y="4818930.711296" />
        <node id="80644773" x="684274.721373" y="4830612.424149" />
        <node id="80719525" x="683059.206937" y="4820890.444807" />
        <node id="9902291_0L0" x="686202.921307" y="4826187.658446" />
        <node id="80743890" x="683778.980303" y="4824630.736759" />
        <node id="80692412" x="682038.688009" y="4818923.672386" />
        <node id="9905499_0L0" x="679921.855918" y="4820045.548072" />
        <node id="236669174_1_rL0" x="680187.423522" y="4819285.190625" />
        <node id="80704853" x="683894.624279" y="4823461.004312" />
        <node id="42145876_0L0" x="686269.656496" y="4825473.039327" />
        <node id="80717383" x="685944.725067" y="4822334.054107" />
        <node id="236798489_1L0" x="681425.603783" y="4825552.016163" />
        <node id="2456582580" x="686284.157756" y="4824132.155040" />
        <node id="80661750" x="684539.370705" y="4822137.998773" />
        <node id="80728750" x="680631.311914" y="4824852.399858" />
        <node id="9906791_2_rL1" x="684031.625697" y="4830195.572204" />
        <node id="109283506_0_rL0" x="686463.918624" y="4825107.030938" />
        <node id="80655498" x="683214.518238" y="4826438.633298" />
        <node id="80737650" x="683721.436824" y="4827318.164671" />
        <node id="2453664557" x="684801.261540" y="4827819.340912" />
        <node id="80692758" x="682018.573575" y="4824056.138529" />
        <node id="2447974839" x="678866.446596" y="4823606.253024" />
        <node id="1341816988" x="683322.499370" y="4819794.634727" />
        <node id="80766941" x="681938.935574" y="4825188.382623" />
        <node id="236796987_3_rL0" x="681371.993920" y="4825280.843367" />
        <node id="9904575_0L0" x="680307.975265" y="4829675.836055" />
        <node id="1331643630" x="679614.845689" y="4826827.803536" />
        <node id="80644309" x="682024.372972" y="4819086.989003" />
        <node id="236376653_2L0" x="679183.896995" y="4826317.786965" />
        <node id="1684134724" x="683406.622511" y="4827650.659898" />
        <node id="498701010" x="680192.953528" y="4818792.100137" />
        <node id="399748728" x="679124.506747" y="4819567.334196" />
        <node id="9903014_1L0" x="680682.005115" y="4830490.073826" />
        <node id="2450014096" x="678260.185023" y="4831052.209692" />
        <node id="237045457_0_rL0" x="681895.226599" y="4830137.187322" />
        <node id="9907776_0_rL0" x="681094.211779" y="4820070.298248" />
        <node id="80650128" x="683966.202218" y="4827963.538411" />
        <node id="2447703158" x="680803.190511" y="4825858.347074" />
        <node id="236376691_0L0" x="679002.440385" y="4825774.299569" />
        <node id="524415278" x="683421.818373" y="4819997.961118" />
        <node id="238030587_2L0" x="686649.485237" y="4818949.109929" />
        <node id="120491119_1L0" x="679186.923039" y="4818766.624587" />
        <node id="80699783" x="685586.028335" y="4824088.559331" />
        <node id="2444035914" x="678126.237000" y="4826799.518083" />
        <node id="9903420_0L0" x="683725.541642" y="4826276.129844" />
        <node id="80643757" x="679978.079149" y="4831265.310008" />
        <node id="2448823657" x="679393.463686" y="4825257.631272" />
        <node id="2446664111" x="679239.271650" y="4821789.771612" />
        <node id="2447974915" x="679274.682275" y="4825001.241225" />
        <node id="603129632" x="679920.770789" y="4828506.337086" />
        <node id="80673673" x="679320.753944" y="4825208.241506" />
        <node id="80643487" x="680333.389149" y="4826225.784880" />
        <node id="9908557_1L0" x="686302.246635" y="4819759.188620" />
        <node id="237049585_0L0" x="678293.757375" y="4829632.783951" />
        <node id="236019189_2L0" x="679820.720139" y="4819587.415719" />
        <node id="80693085" x="678547.707947" y="4820356.698781" />
        <node id="2447849765" x="680242.204386" y="4826245.641468" />
        <node id="80640296" x="684969.756485" y="4820636.518456" />
        <node id="2449159150" x="679981.228469" y="4828459.845356" />
        <node id="80650125" x="683601.334272" y="4827953.984185" />
        <node id="718859554" x="681339.944740" y="4831191.977987" />
        <node id="80681370" x="685160.384702" y="4828606.498948" />
        <node id="237172237_0L0" x="684120.234112" y="4820269.145954" />
        <node id="2053452139" x="679135.082140" y="4829814.486876" />
        <node id="1331643595" x="679857.157150" y="4826755.772408" />
        <node id="1350850729" x="681955.567211" y="4825893.283452" />
        <node id="1860609919" x="679318.683994" y="4824012.869279" />
        <node id="237173971_1L1" x="686551.673570" y="4821283.703422" />
        <node id="80667945" x="685153.845414" y="4828964.118079" />
        <node id="57932765_0L0" x="683819.462506" y="4830672.331515" />
        <node id="2447698863" x="681179.139680" y="4825213.078024" />
        <node id="9905727_1_rL0" x="687303.524636" y="4823428.184315" />
        <node id="80766940" x="681949.024593" y="4824856.120816" />
        <node id="80707296" x="682806.887539" y="4823935.220860" />
        <node id="80704846" x="683879.235247" y="4823966.311768" />
        <node id="80641201" x="686396.790188" y="4829139.864914" />
        <node id="2448823683" x="679347.413824" y="4825262.880283" />
        <node id="524414756" x="686350.698102" y="4822997.390888" />
        <node id="4015808592" x="683394.965492" y="4828041.779076" />
        <node id="3065782743" x="682527.602784" y="4821847.894800" />
        <node id="80678383" x="682005.111247" y="4824492.807211" />
        <node id="80730139" x="680474.788589" y="4824642.474015" />
        <node id="238283216_0L0" x="685833.568875" y="4819346.314969" />
        <node id="80647529" x="684769.299168" y="4828188.762502" />
        <node id="616070039" x="679970.595093" y="4831293.795374" />
        <node id="80717653" x="686264.098661" y="4826020.214216" />
        <node id="2446664256" x="678520.331588" y="4821576.390763" />
        <node id="2458654502" x="684068.336439" y="4824552.258244" />
        <node id="9905727_6L0" x="687438.827302" y="4819391.189648" />
        <node id="80647543" x="686071.672246" y="4828229.141303" />
        <node id="80644622" x="679333.293476" y="4822098.954761" />
        <node id="1912115497" x="678660.984610" y="4830506.791347" />
        <node id="236019189_2_rL0" x="679820.720139" y="4819587.415719" />
        <node id="9904600_0_rL0" x="681649.408851" y="4824425.017385" />
        <node id="80692396" x="681847.252714" y="4819531.196660" />
        <node id="1374415922" x="684378.430873" y="4823473.468960" />
        <node id="80643563" x="685634.971727" y="4821800.558001" />
        <node id="9894453_0L0" x="680944.671569" y="4818812.856583" />
        <node id="80681345" x="683541.135476" y="4828565.169515" />
        <node id="80735454" x="678283.915983" y="4830034.527870" />
        <node id="9905091_4L0" x="683679.815958" y="4823191.347600" />
        <node id="237885182_2L0" x="681943.876453" y="4822878.867426" />
        <node id="80667507" x="679087.315173" y="4830179.572746" />
        <node id="1351593884" x="682369.877777" y="4818941.780903" />
        <node id="9902236_0_rL0" x="686692.606293" y="4831145.690784" />
        <node id="237064634_0_rL1" x="685498.845417" y="4831831.285315" />
        <node id="9904814_7_rL0" x="681350.375179" y="4820842.199871" />
        <node id="2458750793" x="686308.301202" y="4824103.803855" />
        <node id="524415422" x="684926.288622" y="4820546.204721" />
        <node id="80649860" x="683596.484805" y="4825120.568669" />
        <node id="80675312" x="686239.465033" y="4822203.437818" />
        <node id="2448820497" x="679429.772820" y="4825253.333630" />
        <node id="80290460" x="686929.241362" y="4818980.231657" />
        <node id="80710606" x="683360.685022" y="4820898.651338" />
        <node id="236376684_0_rL1" x="678392.069535" y="4826004.218259" />
        <node id="2456364267" x="683456.476509" y="4823675.837660" />
        <node id="237170712_0L0" x="681510.161150" y="4819726.232459" />
        <node id="1331643645" x="679992.820400" y="4826478.928547" />
        <node id="302322967_0_rL0" x="682545.099533" y="4821295.012357" />
        <node id="1028817639" x="679307.707806" y="4823674.002823" />
        <node id="80728403" x="683646.328868" y="4823677.892472" />
        <node id="42145877_1L0" x="686751.889250" y="4824625.981023" />
        <node id="1860609959" x="679330.588895" y="4824013.287243" />
        <node id="1538309201" x="679380.411998" y="4823725.469591" />
        <node id="399684847" x="684736.769927" y="4830636.116839" />
        <node id="9906406_2_rL0" x="685846.557704" y="4823793.262087" />
        <node id="237885652_2_rL0" x="681298.929001" y="4822458.033391" />
        <node id="237475272_0L0" x="684510.370258" y="4824982.765944" />
        <node id="9906895_0L0" x="684157.638792" y="4821320.584113" />
        <node id="80671942" x="683266.645043" y="4824240.590021" />
        <node id="2456582597" x="686405.778281" y="4826068.152407" />
        <node id="1751874013" x="678255.839825" y="4830769.324255" />
        <node id="80723793" x="683756.699558" y="4824036.781026" />
        <node id="237065489_1L0" x="686328.934393" y="4828881.845161" />
        <node id="2461246340" x="686922.664209" y="4818966.811043" />
        <node id="80667930" x="684593.699905" y="4828990.341629" />
        <node id="80661706" x="686552.118336" y="4822184.524583" />
        <node id="80698055" x="679190.774252" y="4826053.144963" />
        <node id="9903847_0_rL0" x="680726.295169" y="4828886.497634" />
        <node id="80746693" x="686041.000460" y="4825870.587341" />
        <node id="9905727_3L0" x="687370.666790" y="4821805.451675" />
        <node id="3067775604" x="682956.582862" y="4822906.508687" />
        <node id="80743230" x="680141.902165" y="4819897.688212" />
        <node id="237784197_0L0" x="686297.288930" y="4828367.437685" />
        <node id="80666984" x="685280.814085" y="4824182.342349" />
        <node id="718857544" x="682960.487338" y="4830846.599648" />
        <node id="399685874" x="684672.036674" y="4830608.790495" />
        <node id="80703760" x="679805.528536" y="4823463.705171" />
        <node id="9905663_0_rL1" x="686674.429733" y="4832274.378535" />
        <node id="236821664_2L0" x="681269.981991" y="4823665.055644" />
        <node id="2447974840" x="678793.931267" y="4823604.599850" />
        <node id="2449111501" x="679382.670631" y="4827674.649169" />
        <node id="80692918" x="685153.235841" y="4828986.775646" />
        <node id="80672042" x="683359.415242" y="4828560.320017" />
        <node id="80673714" x="679330.561427" y="4822201.310457" />
        <node id="237885182_2_rL0" x="681943.876453" y="4822878.867426" />
        <node id="80692870" x="682900.490605" y="4822905.047802" />
        <node id="80701005" x="685117.771226" y="4830214.949958" />
        <node id="9903595_0_rL0" x="684268.182840" y="4828983.951210" />
        <node id="80649891" x="681630.661627" y="4825069.055632" />
        <node id="80641749" x="686286.238840" y="4823779.692291" />
        <node id="80642815" x="685132.018005" y="4830645.958121" />
        <node id="2449935709" x="679924.991140" y="4828465.271485" />
        <node id="2449961893" x="680694.094810" y="4830102.210629" />
        <node id="9905945_2_rL0" x="682762.357283" y="4825412.471533" />
        <node id="80641914" x="683019.805955" y="4819744.264554" />
        <node id="80693075" x="679552.625342" y="4820385.520785" />
        <node id="80641988" x="679511.763791" y="4827000.050723" />
        <node id="86864914_0L0" x="683415.224165" y="4819263.982165" />
        <node id="2446664149" x="678912.427463" y="4821585.951803" />
        <node id="2379640395" x="679536.476102" y="4828449.378298" />