<?xml version="1.0" encoding="UTF-8"?>
<!DOCTYPE network SYSTEM "http://www.matsim.org/files/dtd/network_v2.dtd">
<network>

<!-- ====================================================================== -->

	<nodes>
		<node id="0" x="683519.1547911647" y="4820101.215268192" >
		</node>
		<node id="1" x="683392.999327628" y="4820071.675807575" >
		</node>
		<node id="10" x="685931.0630949466" y="4822135.754025126" >
		</node>
		<node id="100" x="679333.5403224209" y="4823623.055834103" >
		</node>
		<node id="1000" x="679459.3694364203" y="4821647.215905814" >
		</node>
		<node id="1001" x="685447.3034771048" y="4821158.076830614" >
		</node>
		<node id="1002" x="683288.5254138083" y="4823443.94660932" >
		</node>
		<node id="1003" x="681987.32478867" y="4824862.049405698" >
		</node>
		<node id="1004" x="682006.5791805758" y="4824863.849586378" >
		</node>
		<node id="1005" x="684714.4868298857" y="4830521.819425323" >
		</node>
		<node id="1006" x="680311.8307675971" y="4829279.381457368" >
		</node>
		<node id="1007" x="685818.1185134022" y="4829431.107491071" >
		</node>
		<node id="1008" x="686232.8610981713" y="4829442.139020907" >
		</node>
		<node id="1009" x="683497.5534056888" y="4824537.40029595" >
		</node>
		<node id="101" x="683628.5958940266" y="4824251.524000838" >
		</node>
		<node id="1010" x="679359.1773549853" y="4825653.21711736" >
		</node>
		<node id="1011" x="681800.8146859494" y="4826415.428854849" >
		</node>
		<node id="1012" x="682595.6171077723" y="4826036.9078524355" >
		</node>
		<node id="1013" x="682507.5106080344" y="4825907.782457127" >
		</node>
		<node id="1014" x="679367.2061825474" y="4823623.910485215" >
		</node>
		<node id="1015" x="680856.7987594071" y="4824090.965772024" >
		</node>
		<node id="1016" x="679382.5401019901" y="4825972.010442999" >
		</node>
		<node id="1017" x="681403.3102271691" y="4818826.381404928" >
		</node>
		<node id="1018" x="681270.3522254314" y="4818822.0741887875" >
		</node>
		<node id="1019" x="684947.6150325941" y="4820262.621660417" >
		</node>
		<node id="102" x="683629.5029495154" y="4824229.886332299" >
		</node>
		<node id="1020" x="682035.5306278567" y="4825893.940469772" >
		</node>
		<node id="1021" x="682371.1455486247" y="4818853.255461721" >
		</node>
		<node id="1022" x="678805.5122842866" y="4825608.768172127" >
		</node>
		<node id="1023" x="678804.9873217157" y="4825624.225204043" >
		</node>
		<node id="1024" x="683421.8186762955" y="4819997.950012526" >
		</node>
		<node id="1025" x="687357.757722907" y="4822209.521053136" >
		</node>
		<node id="1026" x="687370.6670720084" y="4821805.451567662" >
		</node>
		<node id="1027" x="681728.2696552332" y="4821661.046200929" >
		</node>
		<node id="1028" x="681728.9160331676" y="4821643.425081042" >
		</node>
		<node id="1029" x="682942.3514023433" y="4823426.905597621" >
		</node>
		<node id="103" x="678912.4277589875" y="4821585.940697718" >
		</node>
		<node id="1030" x="683076.6155930371" y="4818867.475879846" >
		</node>
		<node id="1031" x="679333.2937733212" y="4822098.943655497" >
		</node>
		<node id="1032" x="679279.4522129165" y="4821885.958915797" >
		</node>
		<node id="1033" x="680237.8136009588" y="4827143.332985456" >
		</node>
		<node id="1034" x="681655.787915373" y="4824838.909838008" >
		</node>
		<node id="1035" x="681127.2239627902" y="4825895.882562089" >
		</node>
		<node id="1036" x="679907.5151947037" y="4827937.113503869" >
		</node>
		<node id="1037" x="685006.1694725069" y="4829185.562494624" >
		</node>
		<node id="1038" x="679933.5962624145" y="4828906.244061974" >
		</node>
		<node id="1039" x="679925.2033976681" y="4829229.79270596" >
		</node>
		<node id="104" x="678906.1033574955" y="4821828.639120177" >
		</node>
		<node id="1040" x="684984.8946921472" y="4824071.727076441" >
		</node>
		<node id="1041" x="678506.6257234253" y="4821981.492456972" >
		</node>
		<node id="1042" x="678271.2338152989" y="4821968.752158194" >
		</node>
		<node id="1043" x="687249.5590712813" y="4825043.551914966" >
		</node>
		<node id="1044" x="687252.5491272438" y="4825403.762262005" >
		</node>
		<node id="1045" x="681339.9450411511" y="4831191.966880897" >
		</node>
		<node id="1046" x="681426.5772584539" y="4831172.149834709" >
		</node>
		<node id="1047" x="686468.9015333151" y="4824946.59505106" >
		</node>
		<node id="1048" x="679130.4845312486" y="4829835.40346663" >
		</node>
		<node id="1049" x="680814.2059846772" y="4825480.975696844" >
		</node>
		<node id="105" x="686788.4737111593" y="4820389.220900241" >
		</node>
		<node id="1050" x="680092.7134312647" y="4821053.653233478" >
		</node>
		<node id="1051" x="686243.098138787" y="4824161.204136328" >
		</node>
		<node id="1052" x="686270.9423998082" y="4824116.594332794" >
		</node>
		<node id="1053" x="679558.6889718757" y="4818767.046045179" >
		</node>
		<node id="1054" x="686325.2722447675" y="4824613.57160126" >
		</node>
		<node id="1055" x="686437.5582201513" y="4824617.466915646" >
		</node>
		<node id="1056" x="686433.8158864125" y="4828879.524617911" >
		</node>
		<node id="1057" x="685335.1831064175" y="4818750.232735353" >
		</node>
		<node id="1058" x="680694.095409548" y="4830102.188417148" >
		</node>
		<node id="1059" x="685024.869611694" y="4819729.307448632" >
		</node>
		<node id="106" x="687044.4089593485" y="4820490.16916704" >
		</node>
		<node id="1060" x="685427.0334475719" y="4819737.874160418" >
		</node>
		<node id="1061" x="678706.1917966254" y="4821568.627464698" >
		</node>
		<node id="1062" x="680869.0725158826" y="4823652.07774922" >
		</node>
		<node id="1063" x="683360.6853253711" y="4820898.640232459" >
		</node>
		<node id="1064" x="686349.2526071331" y="4824104.895780444" >
		</node>
		<node id="1065" x="686404.3981530047" y="4824108.416012737" >
		</node>
		<node id="1066" x="683327.1236577369" y="4828624.713808498" >
		</node>
		<node id="1067" x="682024.3813572684" y="4819086.97811623" >
		</node>
		<node id="1068" x="678312.8325060781" y="4830434.544474694" >
		</node>
		<node id="1069" x="683799.9047939944" y="4824064.20527253" >
		</node>
		<node id="107" x="686252.0622537276" y="4826443.6488250615" >
		</node>
		<node id="1070" x="686202.9237445116" y="4826187.652608496" >
		</node>
		<node id="1071" x="678547.716324868" y="4820356.687890038" >
		</node>
		<node id="1072" x="679920.2148401428" y="4830295.16528396" >
		</node>
		<node id="1073" x="686315.4852910722" y="4824022.919888371" >
		</node>
		<node id="1074" x="685634.9720349263" y="4821800.5468957" >
		</node>
		<node id="1075" x="683322.4996739508" y="4819794.623621211" >
		</node>
		<node id="1076" x="680253.7786836266" y="4826325.909270372" >
		</node>
		<node id="1077" x="680138.0858682664" y="4826588.624861401" >
		</node>
		<node id="1078" x="679257.0833737743" y="4826601.316860108" >
		</node>
		<node id="1079" x="679187.1452857085" y="4826582.732729435" >
		</node>
		<node id="108" x="686264.0989702587" y="4826020.203109783" >
		</node>
		<node id="1080" x="678249.3418326881" y="4830961.361935965" >
		</node>
		<node id="1081" x="680878.1294000002" y="4823249.747490568" >
		</node>
		<node id="1082" x="679382.5506499382" y="4825200.523394668" >
		</node>
		<node id="1083" x="680841.9363466596" y="4824589.31310019" >
		</node>
		<node id="1084" x="681228.8691316693" y="4824678.215032534" >
		</node>
		<node id="1085" x="679347.4144177524" y="4825262.858070511" >
		</node>
		<node id="1086" x="683779.6679715671" y="4820506.100740689" >
		</node>
		<node id="1087" x="683258.2561242695" y="4824529.56370751" >
		</node>
		<node id="1088" x="682437.9927715682" y="4825965.855371756" >
		</node>
		<node id="1089" x="678854.0332858094" y="4823991.563106775" >
		</node>
		<node id="109" x="679045.9983462996" y="4826822.667399134" >
		</node>
		<node id="1090" x="679320.2759165072" y="4820429.421538151" >
		</node>
		<node id="1091" x="679259.2054560808" y="4820377.345487908" >
		</node>
		<node id="1092" x="686411.8657855326" y="4830252.032448533" >
		</node>
		<node id="1093" x="683521.7792918212" y="4823812.209137629" >
		</node>
		<node id="1094" x="679623.0403361397" y="4826375.31393636" >
		</node>
		<node id="1095" x="679818.9498220481" y="4826647.861499844" >
		</node>
		<node id="1096" x="682181.8764288208" y="4822630.863804953" >
		</node>
		<node id="1097" x="682184.6551982618" y="4822482.182815607" >
		</node>
		<node id="1098" x="678547.4267708433" y="4820370.939600311" >
		</node>
		<node id="1099" x="679681.5600324322" y="4828275.579013791" >
		</node>
		<node id="11" x="684933.1208225604" y="4822453.680440837" >
		</node>
		<node id="110" x="678708.512774379" y="4826814.824851676" >
		</node>
		<node id="1100" x="684968.9087273619" y="4821262.787531524" >
		</node>
		<node id="1101" x="683340.0021433257" y="4821583.845222317" >
		</node>
		<node id="1102" x="683335.4752301308" y="4821743.838381847" >
		</node>
		<node id="1103" x="683725.5432895895" y="4826276.12743422" >
		</node>
		<node id="1104" x="683893.4151882989" y="4826496.307303684" >
		</node>
		<node id="1105" x="684539.305974828" y="4824058.610397757" >
		</node>
		<node id="1106" x="684675.1028366791" y="4830552.044569094" >
		</node>
		<node id="1107" x="680646.6080689183" y="4824395.376577665" >
		</node>
		<node id="1108" x="680656.3254113815" y="4824085.2911631325" >
		</node>
		<node id="1109" x="683942.4622481742" y="4824258.892638962" >
		</node>
		<node id="111" x="679826.0373865385" y="4828456.070602442" >
		</node>
		<node id="1110" x="683216.7184266057" y="4825960.529504073" >
		</node>
		<node id="1111" x="683217.6818061806" y="4825927.611963438" >
		</node>
		<node id="1112" x="683947.7438932462" y="4828787.759547077" >
		</node>
		<node id="1113" x="684205.9135166102" y="4828793.058054426" >
		</node>
		<node id="1114" x="684426.4353351938" y="4824040.104321738" >
		</node>
		<node id="1115" x="679910.7784006235" y="4826728.190534763" >
		</node>
		<node id="1116" x="679058.5356019236" y="4829799.337664488" >
		</node>
		<node id="1117" x="678833.0638023167" y="4829785.615717376" >
		</node>
		<node id="1118" x="679387.2387849321" y="4821305.272970421" >
		</node>
		<node id="1119" x="683307.031776209" y="4822785.955609653" >
		</node>
		<node id="112" x="679886.0776577388" y="4828374.834359441" >
		</node>
		<node id="1120" x="686362.7026552757" y="4830277.741375971" >
		</node>
		<node id="1121" x="683353.7760996188" y="4828955.594439174" >
		</node>
		<node id="1122" x="686433.859502364" y="4830805.418282327" >
		</node>
		<node id="1123" x="686397.9518451226" y="4830800.4289872395" >
		</node>
		<node id="1124" x="682974.869340718" y="4825967.535147358" >
		</node>
		<node id="1125" x="683921.7770007338" y="4823978.113610269" >
		</node>
		<node id="1126" x="685833.5738373924" y="4819346.309416983" >
		</node>
		<node id="1127" x="685837.9475628006" y="4818946.187429979" >
		</node>
		<node id="1128" x="685126.6450820501" y="4823278.603001257" >
		</node>
		<node id="1129" x="685290.0376386426" y="4823139.460995791" >
		</node>
		<node id="113" x="679132.7581211373" y="4828453.996449549" >
		</node>
		<node id="1130" x="685895.9638133459" y="4822981.522749173" >
		</node>
		<node id="1131" x="686091.6286023236" y="4822627.830431414" >
		</node>
		<node id="1132" x="679380.4122955815" y="4823725.458485058" >
		</node>
		<node id="1133" x="679700.8681014337" y="4829839.124079504" >
		</node>
		<node id="1134" x="679792.77489122" y="4829558.916042664" >
		</node>
		<node id="1135" x="683938.8160885823" y="4829144.666045206" >
		</node>
		<node id="1136" x="679552.6256388876" y="4820385.509678948" >
		</node>
		<node id="1137" x="683216.2468229665" y="4825977.210843501" >
		</node>
		<node id="1138" x="678444.3726560653" y="4824315.722899649" >
		</node>
		<node id="1139" x="684155.9839382065" y="4822587.071280386" >
		</node>
		<node id="114" x="679154.3310483219" y="4828853.299405926" >
		</node>
		<node id="1140" x="684524.7048130496" y="4822596.277785726" >
		</node>
		<node id="1141" x="679179.1944186878" y="4826835.34834065" >
		</node>
		<node id="1142" x="683753.0183306444" y="4821309.536201183" >
		</node>
		<node id="1143" x="686014.8943629791" y="4822413.511528563" >
		</node>
		<node id="1144" x="686132.5862724376" y="4822550.216305795" >
		</node>
		<node id="1145" x="685580.5560009899" y="4822969.633402089" >
		</node>
		<node id="1146" x="685239.9855179191" y="4823227.154372459" >
		</node>
		<node id="1147" x="678517.18726751" y="4821703.575145639" >
		</node>
		<node id="1148" x="681975.606897451" y="4819129.949047196" >
		</node>
		<node id="1149" x="680327.3010546206" y="4824510.495592012" >
		</node>
		<node id="115" x="681952.7394367716" y="4825298.779463587" >
		</node>
		<node id="1150" x="680028.1641595127" y="4824797.20848669" >
		</node>
		<node id="1151" x="686321.1275000563" y="4823806.457914502" >
		</node>
		<node id="1152" x="686264.3497866427" y="4823804.560476865" >
		</node>
		<node id="1153" x="683976.3727954603" y="4827571.844079333" >
		</node>
		<node id="1154" x="686353.8518376758" y="4824119.20606027" >
		</node>
		<node id="1155" x="680242.2127608724" y="4826245.630579284" >
		</node>
		<node id="1156" x="680098.9421184058" y="4825241.557926638" >
		</node>
		<node id="1157" x="681310.730069864" y="4823666.365978159" >
		</node>
		<node id="1158" x="684878.6314146919" y="4824068.733753875" >
		</node>
		<node id="1159" x="684879.2476114526" y="4824099.794293689" >
		</node>
		<node id="116" x="681967.7804579008" y="4824858.718732537" >
		</node>
		<node id="1160" x="684378.4311785577" y="4823473.457853935" >
		</node>
		<node id="1161" x="684343.7765848064" y="4823472.6065742085" >
		</node>
		<node id="1162" x="681931.4396753777" y="4819267.895229311" >
		</node>
		<node id="1163" x="681947.1249690468" y="4819217.415634207" >
		</node>
		<node id="1164" x="685109.2959652536" y="4831819.012906013" >
		</node>
		<node id="1165" x="679201.5080741124" y="4826053.398259346" >
		</node>
		<node id="1166" x="679194.3347585539" y="4826318.071216156" >
		</node>
		<node id="1167" x="680495.6823609191" y="4826872.606020403" >
		</node>
		<node id="1168" x="679512.3452952001" y="4827741.581565434" >
		</node>
		<node id="1169" x="679536.1052326293" y="4827927.593788575" >
		</node>
		<node id="117" x="686379.333982996" y="4829264.745959715" >
		</node>
		<node id="1170" x="679682.1565015513" y="4829919.746458201" >
		</node>
		<node id="1171" x="682488.9315354017" y="4825868.776273699" >
		</node>
		<node id="1172" x="679097.7346885381" y="4830024.5058641685" >
		</node>
		<node id="1173" x="679379.1819811846" y="4830035.733956806" >
		</node>
		<node id="1174" x="685278.4115896882" y="4824283.176379698" >
		</node>
		<node id="1175" x="685280.8143921414" y="4824182.331243191" >
		</node>
		<node id="1176" x="678666.0589048982" y="4830029.2666170355" >
		</node>
		<node id="1177" x="679321.5676387172" y="4820378.875359905" >
		</node>
		<node id="1178" x="683966.202523517" y="4827963.527304844" >
		</node>
		<node id="1179" x="682723.8923890502" y="4818860.362297329" >
		</node>
		<node id="118" x="686263.6280080231" y="4828938.372228846" >
		</node>
		<node id="1180" x="687024.7083252505" y="4824633.030988152" >
		</node>
		<node id="1181" x="686751.893406269" y="4824625.970034223" >
		</node>
		<node id="1182" x="687482.144455851" y="4830999.438803423" >
		</node>
		<node id="1183" x="683992.6428837277" y="4824549.716565673" >
		</node>
		<node id="1184" x="681959.2323647414" y="4825787.616905749" >
		</node>
		<node id="1185" x="683993.9892082971" y="4826973.464175236" >
		</node>
		<node id="1186" x="679312.4467289305" y="4823237.306349697" >
		</node>
		<node id="1187" x="679313.3509725984" y="4822921.475092017" >
		</node>
		<node id="1188" x="684855.6374379782" y="4830672.650773938" >
		</node>
		<node id="1189" x="679879.7843110996" y="4828555.21886419" >
		</node>
		<node id="119" x="679439.9426460635" y="4826824.556865783" >
		</node>
		<node id="1190" x="685565.4621837626" y="4828617.908475246" >
		</node>
		<node id="1191" x="682454.7436568951" y="4826512.570692727" >
		</node>
		<node id="1192" x="683389.2609879578" y="4827752.507176198" >
		</node>
		<node id="1193" x="683466.2251480434" y="4825543.654773548" >
		</node>
		<node id="1194" x="687399.9925184108" y="4822218.9573829565" >
		</node>
		<node id="1195" x="686347.047284821" y="4828753.646836442" >
		</node>
		<node id="1196" x="686396.7904979285" y="4829139.853808168" >
		</node>
		<node id="1197" x="681934.9724531139" y="4825893.036287504" >
		</node>
		<node id="1198" x="683199.9581883083" y="4826438.2246225905" >
		</node>
		<node id="1199" x="684186.1696917713" y="4824265.795901434" >
		</node>
		<node id="12" x="684943.0878798009" y="4822147.1210931325" >
		</node>
		<node id="120" x="679511.6320276002" y="4826825.896782717" >
		</node>
		<node id="1200" x="683934.0802145367" y="4829343.17966195" >
		</node>
		<node id="1201" x="686262.294021553" y="4818914.878604116" >
		</node>
		<node id="1202" x="685580.8868799252" y="4818938.444667232" >
		</node>
		<node id="1203" x="683299.2776822057" y="4826966.361432887" >
		</node>
		<node id="1204" x="683209.0546155686" y="4826224.649091892" >
		</node>
		<node id="1205" x="683214.5185423046" y="4826438.622192586" >
		</node>
		<node id="1206" x="679734.7062337874" y="4821462.565177173" >
		</node>
		<node id="1207" x="679008.5894217415" y="4821885.605865802" >
		</node>
		<node id="1208" x="683388.1024238308" y="4828261.718379908" >
		</node>
		<node id="1209" x="679175.907211845" y="4829252.614063738" >
		</node>
		<node id="121" x="685227.3724985451" y="4829809.849154524" >
		</node>
		<node id="1210" x="683366.3101927225" y="4828417.49543682" >
		</node>
		<node id="1211" x="685544.9391816736" y="4820171.601314618" >
		</node>
		<node id="1212" x="685407.6398473948" y="4830223.496591356" >
		</node>
		<node id="1213" x="684621.8933861863" y="4830562.860316817" >
		</node>
		<node id="1214" x="686294.9336634891" y="4825945.666330242" >
		</node>
		<node id="1215" x="686292.5158219023" y="4826038.875885458" >
		</node>
		<node id="1216" x="683785.3911462972" y="4820305.338601156" >
		</node>
		<node id="1217" x="683787.1717110142" y="4820244.646008135" >
		</node>
		<node id="1218" x="682866.9066503965" y="4826224.696766668" >
		</node>
		<node id="1219" x="679916.8022637045" y="4829553.330167516" >
		</node>
		<node id="122" x="685217.2455816467" y="4830217.498340144" >
		</node>
		<node id="1220" x="680006.8035108303" y="4829942.184175438" >
		</node>
		<node id="1221" x="681713.4431384056" y="4822067.233433261" >
		</node>
		<node id="1222" x="681766.6551214878" y="4822068.683892033" >
		</node>
		<node id="1223" x="687482.1466554911" y="4830292.370116752" >
		</node>
		<node id="1224" x="681877.1490975247" y="4825853.801760529" >
		</node>
		<node id="1225" x="681127.4482001425" y="4819688.020179541" >
		</node>
		<node id="1226" x="686153.7809787204" y="4825931.6458553355" >
		</node>
		<node id="1227" x="685764.6065001284" y="4822976.52154409" >
		</node>
		<node id="1228" x="679374.4435462682" y="4823468.571001772" >
		</node>
		<node id="1229" x="678255.6463571781" y="4831201.242798037" >
		</node>
		<node id="123" x="681956.1975775362" y="4825874.505863003" >
		</node>
		<node id="1230" x="685153.8457217605" y="4828964.106973301" >
		</node>
		<node id="1231" x="686256.2763888891" y="4827567.34465741" >
		</node>
		<node id="1232" x="686448.7677381057" y="4825595.137905888" >
		</node>
		<node id="1233" x="686438.9345188809" y="4825912.141306004" >
		</node>
		<node id="1234" x="684236.7371816345" y="4829745.044660738" >
		</node>
		<node id="1235" x="686198.5166050532" y="4825955.872646043" >
		</node>
		<node id="1236" x="680924.1423012961" y="4830110.350964098" >
		</node>
		<node id="1237" x="683657.7046065768" y="4825307.380701656" >
		</node>
		<node id="1238" x="683657.3821722599" y="4825319.164560893" >
		</node>
		<node id="1239" x="683079.2203149152" y="4820282.702474024" >
		</node>
		<node id="124" x="681633.7700373871" y="4824965.230385899" >
		</node>
		<node id="1240" x="680882.346415977" y="4825910.828551014" >
		</node>
		<node id="1241" x="685152.1119418181" y="4830620.860037733" >
		</node>
		<node id="1242" x="685488.6819673919" y="4830654.121005402" >
		</node>
		<node id="1243" x="679363.6005500797" y="4822195.012631382" >
		</node>
		<node id="1244" x="685610.5455699596" y="4823512.443400732" >
		</node>
		<node id="1245" x="685925.5432759819" y="4822350.117700328" >
		</node>
		<node id="1246" x="679625.1668645635" y="4828187.854048313" >
		</node>
		<node id="1247" x="682545.1038279319" y="4821295.012355539" >
		</node>
		<node id="1248" x="683716.9286765622" y="4825308.57911427" >
		</node>
		<node id="1249" x="679878.4602210661" y="4820720.601173011" >
		</node>
		<node id="125" x="681600.397817191" y="4824994.38104862" >
		</node>
		<node id="1250" x="684699.9790661763" y="4830549.718048987" >
		</node>
		<node id="1251" x="678902.9313312839" y="4821585.721208419" >
		</node>
		<node id="1252" x="686254.0044677723" y="4823085.751045597" >
		</node>
		<node id="1253" x="686309.4552247566" y="4823544.944878483" >
		</node>
		<node id="1254" x="683709.8736284848" y="4824541.728516556" >
		</node>
		<node id="1255" x="678678.3704416961" y="4829902.235928657" >
		</node>
		<node id="1256" x="678677.706914275" y="4829928.336871478" >
		</node>
		<node id="1257" x="684747.0379953163" y="4828597.320227314" >
		</node>
		<node id="1258" x="682960.0024320079" y="4819629.680254674" >
		</node>
		<node id="1259" x="687281.1098252852" y="4823022.512169433" >
		</node>
		<node id="126" x="681911.974989637" y="4826572.856065132" >
		</node>
		<node id="1260" x="684562.2617645494" y="4821331.611414664" >
		</node>
		<node id="1261" x="684729.1412048426" y="4829788.818758534" >
		</node>
		<node id="1262" x="681775.3758075807" y="4820289.644870397" >
		</node>
		<node id="1263" x="682934.3254583555" y="4821694.104602184" >
		</node>
		<node id="1264" x="686538.8105002979" y="4822593.605873103" >
		</node>
		<node id="1265" x="686525.4862745842" y="4823002.6758289635" >
		</node>
		<node id="1266" x="686279.0210343204" y="4824106.614958078" >
		</node>
		<node id="1267" x="686277.9597099517" y="4831855.801392128" >
		</node>
		<node id="1268" x="686270.573009046" y="4832264.263845914" >
		</node>
		<node id="1269" x="686239.056949387" y="4827202.362028667" >
		</node>
		<node id="127" x="682065.6119475357" y="4826789.867292015" >
		</node>
		<node id="1270" x="686244.4984348656" y="4826745.532349124" >
		</node>
		<node id="1271" x="681372.0020278268" y="4825280.838860511" >
		</node>
		<node id="1272" x="681311.6830655339" y="4825278.920230931" >
		</node>
		<node id="1273" x="680197.2169150276" y="4828469.202900449" >
		</node>
		<node id="1274" x="686297.2967582323" y="4828367.42951997" >
		</node>
		<node id="1275" x="680137.5432441756" y="4823644.529898112" >
		</node>
		<node id="1276" x="680042.212483789" y="4823641.973408513" >
		</node>
		<node id="1277" x="682759.0321838949" y="4825518.280652854" >
		</node>
		<node id="1278" x="679050.1907619218" y="4820371.552862646" >
		</node>
		<node id="1279" x="683277.2602407875" y="4823850.189611453" >
		</node>
		<node id="128" x="679367.5097760478" y="4823604.068545037" >
		</node>
		<node id="1280" x="679537.3746234931" y="4820385.057888862" >
		</node>
		<node id="1281" x="685371.9933071907" y="4828213.520518882" >
		</node>
		<node id="1282" x="685070.6543209865" y="4828201.140502832" >
		</node>
		<node id="1283" x="679666.3229873955" y="4830060.541619913" >
		</node>
		<node id="1284" x="679660.6298890805" y="4830046.940571119" >
		</node>
		<node id="1285" x="679069.3161043505" y="4823594.954775939" >
		</node>
		<node id="1286" x="678684.7854805767" y="4821971.257322684" >
		</node>
		<node id="1287" x="679955.2737117419" y="4828429.339921025" >
		</node>
		<node id="1288" x="679298.0283480822" y="4821526.4766154" >
		</node>
		<node id="1289" x="685626.8145910875" y="4823238.578931776" >
		</node>
		<node id="129" x="679449.0219148691" y="4823604.579026452" >
		</node>
		<node id="1290" x="686314.3749818602" y="4824060.31299772" >
		</node>
		<node id="1291" x="680095.633158972" y="4828476.109932753" >
		</node>
		<node id="1292" x="679801.9301676771" y="4823637.058413865" >
		</node>
		<node id="1293" x="679146.5363145522" y="4827917.0538484845" >
		</node>
		<node id="1294" x="683261.0927328987" y="4826813.791772431" >
		</node>
		<node id="1295" x="679427.1230345364" y="4826102.750670776" >
		</node>
		<node id="1296" x="678586.9278993788" y="4819146.748286146" >
		</node>
		<node id="1297" x="678590.3953477038" y="4819047.858310562" >
		</node>
		<node id="1298" x="684612.5767064337" y="4823050.372292139" >
		</node>
		<node id="1299" x="684616.0692793684" y="4822933.007815802" >
		</node>
		<node id="13" x="683364.2039440076" y="4830732.227774557" >
		</node>
		<node id="130" x="684956.4921315149" y="4828455.5446319" >
		</node>
		<node id="1300" x="684511.9245979358" y="4823047.995636026" >
		</node>
		<node id="1301" x="684514.5065477109" y="4822946.055655222" >
		</node>
		<node id="1302" x="678876.9028790734" y="4822781.3247594675" >
		</node>
		<node id="1303" x="678482.5347867373" y="4822849.25604893" >
		</node>
		<node id="1304" x="679335.3767851917" y="4823612.412970951" >
		</node>
		<node id="1305" x="680900.7607079444" y="4831237.211440881" >
		</node>
		<node id="1306" x="678239.8688989285" y="4831483.437433091" >
		</node>
		<node id="1307" x="679330.8108140903" y="4825272.606234195" >
		</node>
		<node id="1308" x="685126.9433148841" y="4829807.141223435" >
		</node>
		<node id="1309" x="685117.7715332089" y="4830214.938852569" >
		</node>
		<node id="131" x="683765.0925184863" y="4820910.229377706" >
		</node>
		<node id="1310" x="682600.2533879286" y="4826721.816078285" >
		</node>
		<node id="1311" x="682244.7803374468" y="4821268.522685628" >
		</node>
		<node id="1312" x="683988.1216979487" y="4824022.600432936" >
		</node>
		<node id="1313" x="684786.7970001358" y="4827883.897520068" >
		</node>
		<node id="1314" x="684779.2398160212" y="4828015.655870603" >
		</node>
		<node id="1315" x="680022.3777185299" y="4826851.319417909" >
		</node>
		<node id="1316" x="679892.4441114097" y="4826823.671410575" >
		</node>
		<node id="1317" x="682062.1992467372" y="4818845.363179999" >
		</node>
		<node id="1318" x="683359.4155460077" y="4828560.308910735" >
		</node>
		<node id="1319" x="683387.4256056437" y="4828560.908207529" >
		</node>
		<node id="132" x="679348.9442982157" y="4825271.5458595725" >
		</node>
		<node id="1320" x="685393.627123123" y="4828613.132883182" >
		</node>
		<node id="1321" x="682996.2539523201" y="4828411.6320366105" >
		</node>
		<node id="1322" x="679876.5829507733" y="4826802.817926424" >
		</node>
		<node id="1323" x="679346.0484494753" y="4822910.277987418" >
		</node>
		<node id="1324" x="679366.5427123263" y="4823274.29416448" >
		</node>
		<node id="1325" x="680168.260769906" y="4819941.006528801" >
		</node>
		<node id="1326" x="680173.1746804698" y="4819781.7821127" >
		</node>
		<node id="1327" x="679537.0405708" y="4821027.716849369" >
		</node>
		<node id="1328" x="686638.7163192092" y="4826534.143027646" >
		</node>
		<node id="1329" x="679443.9595111384" y="4820382.352488062" >
		</node>
		<node id="133" x="679339.0216029311" y="4825268.113158423" >
		</node>
		<node id="1330" x="679347.428675364" y="4820379.7097456865" >
		</node>
		<node id="1331" x="678866.4468920362" y="4823606.2419179175" >
		</node>
		<node id="1332" x="678276.7511561799" y="4830051.253207882" >
		</node>
		<node id="1333" x="684841.9111463053" y="4827445.857465374" >
		</node>
		<node id="1334" x="682158.0182365986" y="4820865.238606153" >
		</node>
		<node id="1335" x="679346.2590609179" y="4821688.01940417" >
		</node>
		<node id="1336" x="683307.2566952277" y="4830743.44050346" >
		</node>
		<node id="1337" x="682083.7962930445" y="4818767.5468197" >
		</node>
		<node id="1338" x="683123.0318066091" y="4825991.538539067" >
		</node>
		<node id="1339" x="687259.4408778463" y="4824640.018827617" >
		</node>
		<node id="134" x="682134.4836967095" y="4821551.263243482" >
		</node>
		<node id="1340" x="683532.380695997" y="4823451.206380802" >
		</node>
		<node id="1341" x="683450.640231188" y="4823954.577789745" >
		</node>
		<node id="1342" x="683314.9821716265" y="4822513.864873999" >
		</node>
		<node id="1343" x="682912.1172568171" y="4822502.094715692" >
		</node>
		<node id="1344" x="683756.6998630706" y="4824036.769920356" >
		</node>
		<node id="1345" x="681649.41330699" y="4824425.011844205" >
		</node>
		<node id="1346" x="681651.0508738044" y="4824370.461834186" >
		</node>
		<node id="1347" x="683661.8129941573" y="4828973.073257972" >
		</node>
		<node id="1348" x="683651.5335236344" y="4829371.889467644" >
		</node>
		<node id="1349" x="687313.4612628527" y="4828258.499645839" >
		</node>
		<node id="135" x="682123.4785617731" y="4821837.051381888" >
		</node>
		<node id="1350" x="678371.0112171713" y="4826806.99886646" >
		</node>
		<node id="1351" x="679289.3600933715" y="4823359.802411256" >
		</node>
		<node id="1352" x="683920.6762309654" y="4823822.600166849" >
		</node>
		<node id="1353" x="680267.5738948005" y="4826324.701637145" >
		</node>
		<node id="1354" x="680272.7785986726" y="4826316.872453434" >
		</node>
		<node id="1355" x="683316.4671673669" y="4822109.134144021" >
		</node>
		<node id="1356" x="686491.6719703643" y="4824113.996018777" >
		</node>
		<node id="1357" x="679913.4486480616" y="4818784.317506616" >
		</node>
		<node id="1358" x="683706.6280173131" y="4822927.313319027" >
		</node>
		<node id="1359" x="679340.9860942343" y="4827229.850621716" >
		</node>
		<node id="136" x="681227.5191351398" y="4825815.209596515" >
		</node>
		<node id="1360" x="684899.4017723282" y="4823484.657474785" >
		</node>