<?xml version="1.0" encoding="utf-8"?>
<!DOCTYPE population SYSTEM "http://www.matsim.org/files/dtd/population_v6.dtd">

<population>



<!-- ====================================================================== -->

	<person id="010100-2012000596480-0-179581">
		<attributes>
			<attribute name="age" class="java.lang.Integer" >54</attribute>
			<attribute name="sex" class="java.lang.String" >F</attribute>
		</attributes>
		<plan selected="yes">
			<activity type="Home" x="551130.2960340485" y="4184682.7295167553" end_time="09:34:00" >
			</activity>
			<leg mode="">
			</leg>
			<activity type="Shopping" x="552251.7401971443" y="4182200.3515556245" end_time="12:22:00" >
			</activity>
			<leg mode="">
			</leg>
			<activity type="Home" x="551130.2960340485" y="4184682.7295167553" >
			</activity>
		</plan>

	</person>

<!-- ====================================================================== -->

	<person id="010100-2012000596480-0-179582">
		<attributes>
			<attribute name="age" class="java.lang.Integer" >47</attribute>
			<attribute name="sex" class="java.lang.String" >M</attribute>
		</attributes>
		<plan selected="yes">
			<activity type="Home" x="551130.2960340485" y="4184682.7295167553" end_time="07:42:00" >
			</activity>
			<leg mode="">
			</leg>
			<activity type="Other" x="552582.6495843935" y="4182680.1544600977" end_time="15:31:00" >
			</activity>
			<leg mode="">
			</leg>
			<activity type="Home" x="551130.2960340485" y="4184682.7295167553" end_time="17:11:00" >
			</activity>
			<leg mode="">
			</leg>
			<activity type="Social" x="553223.956307973" y="4182342.7639438845" end_time="17:49:00" >
			</activity>
			<leg mode="">
			</leg>
			<activity type="Home" x="551130.2960340485" y="4184682.7295167553" >
			</activity>
		</plan>

	</person>

<!-- ====================================================================== -->

	<person id="010100-2012000596480-0-179583">
		<attributes>
			<attribute name="age" class="java.lang.Integer" >12</attribute>
			<attribute name="sex" class="java.lang.String" >M</attribute>
		</attributes>
		<plan selected="yes">
			<activity type="Home" x="551130.2960340485" y="4184682.7295167553" end_time="05:25:00" >
			</activity>
			<leg mode="">
			</leg>
			<activity type="Work" x="547817.7165682092" y="4175651.870513485" end_time="14:06:00" >
			</activity>
			<leg mode="">
			</leg>
			<activity type="Home" x="551130.2960340485" y="4184682.7295167553" >
			</activity>
		</plan>

	</person>

<!-- ====================================================================== -->

	<person id="010100-2012000596480-0-179584">
		<attributes>
			<attribute name="age" class="java.lang.Integer" >12</attribute>
			<attribute name="sex" class="java.lang.String" >F</attribute>
		</attributes>
		<plan selected="yes">
			<activity type="Home" x="551130.2960340485" y="4184682.7295167553" end_time="08:03:00" >
			</activity>
			<leg mode="">
			</leg>
			<activity type="Work" x="552273.8040746253" y="4178885.5773629844" end_time="16:43:00" >
			</activity>
			<leg mode="">
			</leg>
			<activity type="Home" x="551130.2960340485" y="4184682.7295167553" >
			</activity>
		</plan>

	</person>

<!-- ====================================================================== -->

	<person id="010100-2012000596480-0-179585">
		<attributes>
			<attribute name="age" class="java.lang.Integer" >1</attribute>
			<attribute name="sex" class="java.lang.String" >F</attribute>
		</attributes>
		<plan selected="yes">
			<activity type="Home" x="551130.2960340485" y="4184682.7295167553" end_time="08:30:00" >
			</activity>
			<leg mode="">
			</leg>
			<activity type="Shopping" x="554851.6053569254" y="4177635.551293127" end_time="18:14:00" >
			</activity>
			<leg mode="">
			</leg>
			<activity type="Home" x="551130.2960340485" y="4184682.7295167553" end_time="19:00:00" >
			</activity>
			<leg mode="">
			</leg>
			<activity type="Other" x="551378.2303795333" y="4180198.255111375" end_time="20:48:00" >
			</activity>
			<leg mode="">
			</leg>
			<activity type="Home" x="551130.2960340485" y="4184682.7295167553" >
			</activity>
		</plan>

	</person>

<!-- ====================================================================== -->

	<person id="010100-2013001163188-0-6030634">
		<attributes>
			<attribute name="age" class="java.lang.Integer" >33</attribute>
			<attribute name="sex" class="java.lang.String" >M</attribute>
		</attributes>
		<plan selected="yes">
			<activity type="Home" x="552008.858154985" y="4184695.559585889" end_time="09:02:00" >
			</activity>
			<leg mode="">
			</leg>
			<activity type="Work" x="548838.1661657477" y="4182783.637193923" end_time="20:51:00" >
			</activity>
			<leg mode="">
			</leg>
			<activity type="Home" x="552008.858154985" y="4184695.559585889" >
			</activity>
		</plan>

	</person>

<!-- ====================================================================== -->

	<person id="010100-2013001257089-0-3994384">
		<attributes>
			<attribute name="age" class="java.lang.Integer" >89</attribute>
			<attribute name="sex" class="java.lang.String" >M</attribute>
		</attributes>
		<plan selected="yes">
			<activity type="Home" x="551925.9120413212" y="4184714.330609082" end_time="06:01:00" >
			</activity>
			<leg mode="">
			</leg>
			<activity type="Work" x="552077.1476972632" y="4182582.103223824" end_time="06:49:00" >
			</activity>
			<leg mode="">
			</leg>
			<activity type="Home" x="551925.9120413212" y="4184714.330609082" end_time="09:23:00" >
			</activity>
			<leg mode="">
			</leg>
			<activity type="Work" x="552046.9606781394" y="4182734.3132307995" end_time="15:12:00" >
			</activity>
			<leg mode="">
			</leg>
			<activity type="Home" x="551925.9120413212" y="4184714.330609082" >
			</activity>
		</plan>

	</person>

<!-- ====================================================================== -->

	<person id="010200-2012000376103-0-1067089">
		<attributes>
			<attribute name="age" class="java.lang.Integer" >87</attribute>
			<attribute name="sex" class="java.lang.String" >F</attribute>
		</attributes>
		<plan selected="yes">
			<activity type="Home" x="550734.9695197277" y="4184339.542214045" end_time="05:25:00" >
			</activity>
			<leg mode="">
			</leg>
			<activity type="Work" x="550079.5139391508" y="4182993.457717145" end_time="18:12:00" >
			</activity>
			<leg mode="">
			</leg>
			<activity type="Home" x="550734.9695197277" y="4184339.542214045" >
			</activity>
		</plan>

	</person>

<!-- ====================================================================== -->

	<person id="010200-2012000376103-0-1067090">
		<attributes>
			<attribute name="age" class="java.lang.Integer" >91</attribute>
			<attribute name="sex" class="java.lang.String" >M</attribute>
		</attributes>
		<plan selected="yes">
			<activity type="Home" x="550734.9695197277" y="4184339.542214045" end_time="05:25:00" >
			</activity>
			<leg mode="">
			</leg>
			<activity type="Work" x="550079.5139391508" y="4182993.457717145" end_time="18:12:00" >
			</activity>
			<leg mode="">
			</leg>
			<activity type="Home" x="550734.9695197277" y="4184339.542214045" >
			</activity>
		</plan>

	</person>

<!-- ====================================================================== -->

	<person id="010200-2012000700304-0-6796853">
		<attributes>
			<attribute name="age" class="java.lang.Integer" >24</attribute>
			<attribute name="sex" class="java.lang.String" >F</attribute>
		</attributes>
		<plan selected="yes">
			<activity type="Home" x="550745.6667712056" y="4183733.33916816" end_time="06:54:00" >
			</activity>
			<leg mode="">
			</leg>
			<activity type="Work" x="549742.6073633791" y="4182734.0695799654" end_time="21:41:00" >
			</activity>
			<leg mode="">
			</leg>
			<activity type="Home" x="550745.6667712056" y="4183733.33916816" >
			</activity>
		</plan>

	</person>

<!-- ====================================================================== -->

	<person id="010200-2012000700304-0-6796854">
		<attributes>
			<attribute name="age" class="java.lang.Integer" >22</attribute>
			<attribute name="sex" class="java.lang.String" >M</attribute>
		</attributes>
		<plan selected="yes">
			<activity type="Home" x="550745.6667712056" y="4183733.33916816" end_time="05:51:00" >
			</activity>
			<leg mode="">
			</leg>
			<activity type="Eatout" x="552522.4190140977" y="4181611.4655511035" end_time="06:40:00" >
			</activity>
			<leg mode="">
			</leg>
			<activity type="Home" x="550745.6667712056" y="4183733.33916816" end_time="08:51:00" >
			</activity>
			<leg mode="">
			</leg>
			<activity type="Other" x="548936.5010258288" y="4181686.443708853" end_time="11:41:00" >
			</activity>
			<leg mode="">
			</leg>
			<activity type="Home" x="550745.6667712056" y="4183733.33916816" end_time="12:20:00" >
			</activity>
			<leg mode="">
			</leg>
			<activity type="Other" x="548026.8303964052" y="4181724.7871076185" end_time="20:10:00" >
			</activity>
			<leg mode="">
			</leg>
			<activity type="Home" x="550745.6667712056" y="4183733.33916816" >
			</activity>
		</plan>

	</person>

<!-- ====================================================================== -->

	<person id="010200-2012000700304-0-6796855">
		<attributes>
			<attribute name="age" class="java.lang.Integer" >2</attribute>
			<attribute name="sex" class="java.lang.String" >F</attribute>
		</attributes>
		<plan selected="yes">
			<activity type="Home" x="550745.6667712056" y="4183733.33916816" end_time="18:50:00" >
			</activity>
			<leg mode="">
			</leg>
			<activity type="Eatout" x="550917.3469094413" y="4179904.1692069666" end_time="21:39:00" >
			</activity>
			<leg mode="">
			</leg>
			<activity type="Home" x="550745.6667712056" y="4183733.33916816" >
			</activity>
		</plan>

	</person>

<!-- ====================================================================== -->

	<person id="010200-2012000700304-0-6796856">
		<attributes>
			<attribute name="age" class="java.lang.Integer" >9</attribute>
			<attribute name="sex" class="java.lang.String" >F</attribute>
		</attributes>
		<plan selected="yes">
			<activity type="Home" x="550745.6667712056" y="4183733.33916816" end_time="18:50:00" >
			</activity>
			<leg mode="">
			</leg>
			<activity type="Eatout" x="550917.3469094413" y="4179904.1692069666" end_time="21:39:00" >
			</activity>
			<leg mode="">
			</leg>
			<activity type="Home" x="550745.6667712056" y="4183733.33916816" >
			</activity>
		</plan>

	</person>

<!-- ====================================================================== -->

	<person id="010200-2013001027012-0-6531295">
		<attributes>
			<attribute name="age" class="java.lang.Integer" >54</attribute>
			<attribute name="sex" class="java.lang.String" >M</attribute>
		</attributes>
		<plan selected="yes">
			<activity type="Home" x="550690.4729548297" y="4184475.9910744647" end_time="07:22:00" >
			</activity>
			<leg mode="">
			</leg>
			<activity type="Work" x="550132.6757637903" y="4182700.935844811" end_time="17:09:00" >
			</activity>
			<leg mode="">
			</leg>
			<activity type="Home" x="550690.4729548297" y="4184475.9910744647" >
			</activity>
		</plan>

	</person>

<!-- ====================================================================== -->

	<person id="010200-2013001027012-0-6531296">
		<attributes>
			<attribute name="age" class="java.lang.Integer" >47</attribute>
			<attribute name="sex" class="java.lang.String" >F</attribute>
		</attributes>
		<plan selected="yes">
			<activity type="Home" x="550690.4729548297" y="4184475.9910744647" end_time="07:22:00" >
			</activity>
			<leg mode="">
			</leg>
			<activity type="Work" x="550132.6757637903" y="4182700.935844811" end_time="17:09:00" >
			</activity>
			<leg mode="">
			</leg>
			<activity type="Home" x="550690.4729548297" y="4184475.9910744647" >
			</activity>
		</plan>

	</person>

<!-- ====================================================================== -->

	<person id="010200-2013001027012-0-6531297">
		<attributes>
			<attribute name="age" class="java.lang.Integer" >3</attribute>
			<attribute name="sex" class="java.lang.String" >M</attribute>
		</attributes>
		<plan selected="yes">
			<activity type="Home" x="550690.4729548297" y="4184475.9910744647" end_time="08:23:00" >
			</activity>
			<leg mode="">
			</leg>
			<activity type="School" x="548682.2660499038" y="4183814.3137744404" end_time="14:16:00" >
			</activity>
			<leg mode="">
			</leg>
			<activity type="Home" x="550690.4729548297" y="4184475.9910744647" end_time="15:55:00" >
			</activity>
			<leg mode="">
			</leg>
			<activity type="Other" x="549678.3815317543" y="4182673.089725412" end_time="18:42:00" >
			</activity>
			<leg mode="">
			</leg>
			<activity type="Home" x="550690.4729548297" y="4184475.9910744647" >
			</activity>
		</plan>

	</person>

<!-- ====================================================================== -->

	<person id="010200-2013001407490-0-7050876">
		<attributes>
			<attribute name="age" class="java.lang.Integer" >68</attribute>
			<attribute name="sex" class="java.lang.String" >M</attribute>
		</attributes>
		<plan selected="yes">
			<activity type="Home" x="551291.9657693955" y="4184804.487341364" end_time="08:16:00" >
			</activity>
			<leg mode="">
			</leg>
			<activity type="Escort" x="549374.2287250349" y="4177608.5076036514" end_time="08:56:00" >
			</activity>
			<leg mode="">
			</leg>
			<activity type="Home" x="551291.9657693955" y="4184804.487341364" >
			</activity>
		</plan>

	</person>

<!-- ====================================================================== -->

	<person id="010200-2014000809809-0-2848285">
		<attributes>
			<attribute name="age" class="java.lang.Integer" >20</attribute>
			<attribute name="sex" class="java.lang.String" >M</attribute>
		</attributes>
		<plan selected="yes">
			<activity type="Home" x="550677.5780069558" y="4184146.2341234395" end_time="09:40:00" >
			</activity>
			<leg mode="">
			</leg>
			<activity type="Other" x="552135.0837112699" y="4180651.0682172473" end_time="19:28:00" >
			</activity>
			<leg mode="">
			</leg>
			<activity type="Home" x="550677.5780069558" y="4184146.2341234395" >
			</activity>
		</plan>

	</person>

<!-- ====================================================================== -->

	<person id="010200-2014000909482-0-1831503">
		<attributes>
			<attribute name="age" class="java.lang.Integer" >39</attribute>
			<attribute name="sex" class="java.lang.String" >F</attribute>
		</attributes>
		<plan selected="yes">
			<activity type="Home" x="550933.5341411035" y="4183764.9066924546" end_time="15:30:00" >
			</activity>
			<leg mode="">
			</leg>
			<activity type="Shopping" x="552255.8932041689" y="4180378.344151952" end_time="16:19:00" >
			</activity>
			<leg mode="">
			</leg>
			<activity type="Home" x="550933.5341411035" y="4183764.9066924546" >
			</activity>
		</plan>

	</person>

<!-- ====================================================================== -->

	<person id="010200-2014000909482-0-1831504">
		<attributes>
			<attribute name="age" class="java.lang.Integer" >56</attribute>
			<attribute name="sex" class="java.lang.String" >F</attribute>
		</attributes>
		<plan selected="yes">
			<activity type="Home" x="550933.5341411035" y="4183764.9066924546" end_time="07:13:00" >
			</activity>
			<leg mode="">
			</leg>
			<activity type="Other" x="551230.6059158843" y="4182929.170259392" end_time="14:04:00" >
			</activity>
			<leg mode="">
			</leg>
			<activity type="Home" x="550933.5341411035" y="4183764.9066924546" >
			</activity>
		</plan>

	</person>

<!-- ====================================================================== -->

	<person id="010200-2014001327621-0-7815204">
		<attributes>
			<attribute name="age" class="java.lang.Integer" >22</attribute>
			<attribute name="sex" class="java.lang.String" >M</attribute>
		</attributes>
		<plan selected="yes">
			<activity type="Home" x="550780.3459152604" y="4183871.735014328" end_time="05:04:00" >
			</activity>
			<leg mode="">
			</leg>
			<activity type="Work" x="552103.3625183858" y="4181997.447333003" end_time="17:53:00" >
			</activity>
			<leg mode="">
			</leg>
			<activity type="Home" x="550780.3459152604" y="4183871.735014328" end_time="18:02:00" >
			</activity>
			<leg mode="">
			</leg>
			<activity type="Shopping" x="553599.0407640652" y="4182222.026801955" end_time="21:50:00" >
			</activity>
			<leg mode="">
			</leg>
			<activity type="Home" x="550780.3459152604" y="4183871.735014328" end_time="23:27:00" >
			</activity>
			<leg mode="">
			</leg>
			<activity type="Shopping" x="552676.896059664" y="4182908.562554192" end_time="23:49:00" >
			</activity>
			<leg mode="">
			</leg>
			<activity type="Home" x="550780.3459152604" y="4183871.735014328" >
			</activity>
		</plan>

	</person>

<!-- ====================================================================== -->

	<person id="010200-2014001327621-0-7815205">
		<attributes>
			<attribute name="age" class="java.lang.Integer" >46</attribute>
			<attribute name="sex" class="java.lang.String" >M</attribute>
		</attributes>
		<plan selected="yes">
			<activity type="Home" x="550780.3459152604" y="4183871.735014328" end_time="06:03:00" >
			</activity>
			<leg mode="">
			</leg>
			<activity type="Work" x="551198.5060594957" y="4182024.63069857" end_time="14:52:00" >
			</activity>
			<leg mode="">
			</leg>
			<activity type="Home" x="550780.3459152604" y="4183871.735014328" >
			</activity>
		</plan>

	</person>

<!-- ====================================================================== -->

	<person id="010200-2014001327621-0-7815206">
		<attributes>
			<attribute name="age" class="java.lang.Integer" >27</attribute>
			<attribute name="sex" class="java.lang.String" >M</attribute>
		</attributes>
		<plan selected="yes">
			<activity type="Home" x="550780.3459152604" y="4183871.735014328" end_time="05:04:00" >
			</activity>
			<leg mode="">
			</leg>
			<activity type="Work" x="552103.3625183858" y="4181997.447333003" end_time="17:53:00" >
			</activity>
			<leg mode="">
			</leg>
			<activity type="Home" x="550780.3459152604" y="4183871.735014328" end_time="18:02:00" >
			</activity>
			<leg mode="">
			</leg>
			<activity type="Shopping" x="553599.0407640652" y="4182222.026801955" end_time="21:50:00" >
			</activity>
			<leg mode="">
			</leg>
			<activity type="Home" x="550780.3459152604" y="4183871.735014328" end_time="23:27:00" >
			</activity>
			<leg mode="">
			</leg>
			<activity type="Shopping" x="552676.896059664" y="4182908.562554192" end_time="23:49:00" >
			</activity>
			<leg mode="">
			</leg>
			<activity type="Home" x="550780.3459152604" y="4183871.735014328" >
			</activity>
		</plan>

	</person>

<!-- ====================================================================== -->

	<person id="010200-2015000371606-0-7177832">
		<attributes>
			<attribute name="age" class="java.lang.Integer" >33</attribute>
			<attribute name="sex" class="java.lang.String" >F</attribute>
		</attributes>
		<plan selected="yes">
			<activity type="Home" x="551130.2960340485" y="4184682.7295167553" end_time="09:34:00" >
			</activity>
			<leg mode="">
			</leg>
			<activity type="Shopping" x="552251.7401971443" y="4182200.3515556245" end_time="12:22:00" >
			</activity>
			<leg mode="">
			</leg>
			<activity type="Home" x="551130.2960340485" y="4184682.7295167553" >
			</activity>
		</plan>

	</person>

<!-- ====================================================================== -->

	<person id="010200-2015000371606-0-7177833">
		<attributes>
			<attribute name="age" class="java.lang.Integer" >26</attribute>
			<attribute name="sex" class="java.lang.String" >M</attribute>
		</attributes>
		<plan selected="yes">
			<activity type="Home" x="551130.2960340485" y="4184682.7295167553" end_time="07:42:00" >
			</activity>
			<leg mode="">
			</leg>
			<activity type="Other" x="552582.6495843935" y="4182680.1544600977" end_time="15:31:00" >
			</activity>
			<leg mode="">
			</leg>
			<activity type="Home" x="551130.2960340485" y="4184682.7295167553" end_time="17:11:00" >
			</activity>
			<leg mode="">
			</leg>
			<activity type="Social" x="553223.956307973" y="4182342.7639438845" end_time="17:49:00" >
			</activity>
			<leg mode="">
			</leg>
			<activity type="Home" x="551130.2960340485" y="4184682.7295167553" >
			</activity>
		</plan>

	</person>

<!-- ====================================================================== -->

	<person id="010200-2015000933737-0-54139">
		<attributes>
			<attribute name="age" class="java.lang.Integer" >61</attribute>
			<attribute name="sex" class="java.lang.String" >M</attribute>
		</attributes>
		<plan selected="yes">
			<activity type="Home" x="550646.6457987719" y="4184065.563086237" end_time="12:16:00" >
			</activity>
			<leg mode="">
			</leg>
			<activity type="Eatout" x="551691.0558813545" y="4182637.8434577864" end_time="15:06:00" >
			</activity>
			<leg mode="">
			</leg>
			<activity type="Home" x="550646.6457987719" y="4184065.563086237" >
			</activity>
		</plan>

	</person>

<!-- ====================================================================== -->

	<person id="010200-2015000933737-0-54140">
		<attributes>
			<attribute name="age" class="java.lang.Integer" >36</attribute>
			<attribute name="sex" class="java.lang.String" >F</attribute>
		</attributes>
		<plan selected="yes">
			<activity type="Home" x="550646.6457987719" y="4184065.563086237" end_time="12:16:00" >
			</activity>
			<leg mode="">
			</leg>
			<activity type="Eatout" x="551691.0558813545" y="4182637.8434577864" end_time="15:06:00" >
			</activity>
			<leg mode="">
			</leg>
			<activity type="Home" x="550646.6457987719" y="4184065.563086237" >
			</activity>
		</plan>

	</person>

<!-- ====================================================================== -->

	<person id="010200-2015000933737-0-54141">
		<attributes>
			<attribute name="age" class="java.lang.Integer" >7</attribute>
			<attribute name="sex" class="java.lang.String" >M</attribute>
		</attributes>
		<plan selected="yes">
			<activity type="Home" x="550646.6457987719" y="4184065.563086237" end_time="13:29:00" >
			</activity>
			<leg mode="">
			</leg>
			<activity type="School" x="550758.360325037" y="4181898.6527050426" end_time="18:19:00" >
			</activity>
			<leg mode="">
			</leg>
			<activity type="Home" x="550646.6457987719" y="4184065.563086237" >
			</activity>
		</plan>

	</person>

<!-- ====================================================================== -->

	<person id="010200-2016000706643-1-3866913">
		<attributes>
			<attribute name="age" class="java.lang.Integer" >93</attribute>
			<attribute name="sex" class="java.lang.String" >M</attribute>
		</attributes>
		<plan selected="yes">
			<activity type="Home" x="550915.576548963" y="4184603.907585486" end_time="09:35:00" >
			</activity>
			<leg mode="">
			</leg>
			<activity type="Shopping" x="552767.2439266269" y="4182769.1058820654" end_time="22:23:00" >
			</activity>
			<leg mode="">
			</leg>
			<activity type="Home" x="550915.576548963" y="4184603.907585486" >
			</activity>
		</plan>

	</person>

<!-- ====================================================================== -->

	<person id="010400-2012000203588-0-7039277">
		<attributes>
			<attribute name="age" class="java.lang.Integer" >40</attribute>
			<attribute name="sex" class="java.lang.String" >F</attribute>
		</attributes>
		<plan selected="yes">
			<activity type="Home" x="551822.1140167135" y="4184112.914190965" end_time="07:17:00" >
			</activity>
			<leg mode="">
			</leg>
			<activity type="Work" x="553458.9916927045" y="4181713.173405433" end_time="16:05:00" >
			</activity>
			<leg mode="">
			</leg>
			<activity type="Home" x="551822.1140167135" y="4184112.914190965" end_time="17:58:00" >
			</activity>
			<leg mode="">
			</leg>
			<activity type="Other" x="550683.6348075654" y="4181992.7580505" end_time="19:46:00" >
			</activity>
			<leg mode="">
			</leg>
			<activity type="Home" x="551822.1140167135" y="4184112.914190965" >
			</activity>
		</plan>

	</person>

<!-- ====================================================================== -->

	<person id="010400-2012000203588-0-7039278">
		<attributes>
			<attribute name="age" class="java.lang.Integer" >46</attribute>
			<attribute name="sex" class="java.lang.String" >M</attribute>
		</attributes>
		<plan selected="yes">
			<activity type="Home" x="551822.1140167135" y="4184112.914190965" end_time="07:40:00" >
			</activity>
			<leg mode="">
			</leg>
			<activity type="Other" x="550198.1775199751" y="4184013.8011830733" end_time="20:30:00" >
			</activity>
			<leg mode="">
			</leg>
			<activity type="Home" x="551822.1140167135" y="4184112.914190965" >
			</activity>
		</plan>

	</person>

<!-- ====================================================================== -->

	<person id="010400-2012000203588-0-7039279">
		<attributes>
			<attribute name="age" class="java.lang.Integer" >31</attribute>
			<attribute name="sex" class="java.lang.String" >M</attribute>
		</attributes>
		<plan selected="yes">
			<activity type="Home" x="551822.1140167135" y="4184112.914190965" end_time="08:29:00" >
			</activity>
			<leg mode="">
			</leg>
			<activity type="Work" x="549690.2518192291" y="4183130.922620354" end_time="17:19:00" >
			</activity>
			<leg mode="">
			</leg>
			<activity type="Home" x="551822.1140167135" y="4184112.914190965" end_time="18:23:00" >
			</activity>
			<leg mode="">
			</leg>
			<activity type="Other" x="551695.2209190826" y="4179813.3431134447" end_time="19:03:00" >
			</activity>
			<leg mode="">
			</leg>
			<activity type="Home" x="551822.1140167135" y="4184112.914190965" >
			</activity>
		</plan>

	</person>

<!-- ====================================================================== -->

	<person id="010400-2012000203588-0-7039280">
		<attributes>
			<attribute name="age" class="java.lang.Integer" >0</attribute>
			<attribute name="sex" class="java.lang.String" >M</attribute>
		</attributes>
		<plan selected="yes">
			<activity type="Home" x="551822.1140167135" y="4184112.914190965" end_time="10:54:00" >
			</activity>
			<leg mode="">
			</leg>
			<activity type="Shopping" x="552518.113770521" y="4183309.1745187677" end_time="11:45:00" >
			</activity>
			<leg mode="">
			</leg>
			<activity type="Home" x="551822.1140167135" y="4184112.914190965" >
			</activity>
		</plan>

	</person>

<!-- ====================================================================== -->

	<person id="010400-2012000203588-0-7039281">
		<attributes>
			<attribute name="age" class="java.lang.Integer" >3</attribute>
			<attribute name="sex" class="java.lang.String" >M</attribute>
		</attributes>
		<plan selected="yes">
			<activity type="Home" x="551822.1140167135" y="4184112.914190965" end_time="08:29:00" >
			</activity>
			<leg mode="">
			</leg>
			<activity type="Work" x="549690.2518192291" y="4183130.922620354" end_time="17:19:00" >
			</activity>
			<leg mode="">
			</leg>
			<activity type="Home" x="551822.1140167135" y="4184112.914190965" end_time="18:23:00" >
			</activity>
			<leg mode="">
			</leg>
			<activity type="Other" x="551695.2209190826" y="4179813.3431134447" end_time="19:03:00" >
			</activity>
			<leg mode="">
			</leg>
			<activity type="Home" x="551822.1140167135" y="4184112.914190965" >
			</activity>
		</plan>

	</person>

<!-- ====================================================================== -->

	<person id="010400-2012000546598-0-1958234">
		<attributes>
			<attribute name="age" class="java.lang.Integer" >88</attribute>
			<attribute name="sex" class="java.lang.String" >M</attribute>
		</attributes>
		<plan selected="yes">
			<activity type="Home" x="552606.5538002048" y="4183754.9767278545" end_time="08:29:00" >
			</activity>
			<leg mode="">
			</leg>
			<activity type="Shopping" x="550284.3054321175" y="4180292.7952638874" end_time="11:14:00" >
			</activity>
			<leg mode="">
			</leg>
			<activity type="Home" x="552606.5538002048" y="4183754.9767278545" end_time="12:22:00" >
			</activity>
			<leg mode="">
			</leg>
			<activity type="Shopping" x="550796.0065342952" y="4182699.24932862" end_time="21:11:00" >
			</activity>
			<leg mode="">
			</leg>
			<activity type="Home" x="552606.5538002048" y="4183754.9767278545" >
			</activity>
		</plan>

	</person>

<!-- ====================================================================== -->

	<person id="010400-2012001111568-1-1195213">
		<attributes>
			<attribute name="age" class="java.lang.Integer" >32</attribute>
			<attribute name="sex" class="java.lang.String" >F</attribute>
		</attributes>
		<plan selected="yes">
			<activity type="Home" x="551954.7073447222" y="4184176.095506529" end_time="10:54:00" >
			</activity>
			<leg mode="">
			</leg>
			<activity type="Shopping" x="552518.113770521" y="4183309.1745187677" end_time="11:45:00" >
			</activity>
			<leg mode="">
			</leg>
			<activity type="Home" x="551954.7073447222" y="4184176.095506529" >
			</activity>
		</plan>

	</person>

<!-- ====================================================================== -->

	<person id="010400-2013000141206-0-6030422">
		<attributes>
			<attribute name="age" class="java.lang.Integer" >21</attribute>
			<attribute name="sex" class="java.lang.String" >M</attribute>
		</attributes>
		<plan selected="yes">
			<activity type="Home" x="551910.132009584" y="4183928.1310564633" end_time="18:40:00" >
			</activity>
			<leg mode="">
			</leg>
			<activity type="Shopping" x="550586.622638077" y="4180542.7709704475" end_time="19:28:00" >
			</activity>
			<leg mode="">
			</leg>
			<activity type="Home" x="551910.132009584" y="4183928.1310564633" >
			</activity>
		</plan>

	</person>

<!-- ====================================================================== -->

	<person id="010400-2013000141206-0-6030423">
		<attributes>
			<attribute name="age" class="java.lang.Integer" >25</attribute>
			<attribute name="sex" class="java.lang.String" >M</attribute>